src/test/resources/netPositionsData/20190618_0030_2D2_FR0.uct
##C 2007.05.01

##N
##ZFR
FAC_LO11 SHADOW       1 2 400.00   00.00   10.00 1000.00   10.00 5258.87   20.00
FVA_PR21 SHADOW       1 2 400.00   00.00   10.00  500.00   10.00 5966.04   20.00
FMA_SE11 SHADOW       1 2 400.00   00.00   10.00  200.00   10.00  500.00   20.00
FTO_CH11 SHADOW       1 2 400.00   00.00   10.00  100.00   10.00  500.00   20.00
##ZXX
XAC_LO11 CORE         1 0 400.00 1200.00   10.00   00.00   10.00   20.00   20.00
XVA_PR21 OUT          1 0 400.00  550.00   10.00   00.00   10.00   20.00   20.00
XMA_SE11 VIRTHUB      1 0 400.00  900.00   10.00   00.00   10.00   20.00   20.00
XTO_CH11 VIRTHUB      1 0 400.00   00.00   10.00   00.00   10.00   20.00   20.00
##L
FAC_LO11 XAC_LO11 1 0  20.00  20.00  20.00   5000
FVA_PR21 XVA_PR21 1 0  20.00  20.00  20.00   5000
FMA_SE11 XMA_SE11 1 0  20.00  20.00  20.00   5000
FTO_CH11 XTO_CH11 1 0  20.00  20.00  20.00   5000
##T
##R
